*MATERIAL, NAME=STEEL
*ELASTIC
2.100e+11, 0.300
*DENSITY
7.850e+03
**
**
*PART, NAME=BEAM
**
*NODE, NSET=COL1
1001,0.00000,0.00000,0.00000
1002,0.50000,0.00000,0.00000
1003,1.00000,0.00000,0.00000
1004,1.50000,0.00000,0.00000
1005,2.00000,0.00000,0.00000
1006,2.50000,0.00000,0.00000
1007,3.00000,0.00000,0.00000
1008,3.50000,0.00000,0.00000
1009,4.00000,0.00000,0.00000
1010,4.50000,0.00000,0.00000
1011,5.00000,0.00000,0.00000
1012,5.50000,0.00000,0.00000
1013,6.00000,0.00000,0.00000
1014,6.50000,0.00000,0.00000
1015,7.00000,0.00000,0.00000
1016,7.50000,0.00000,0.00000
1017,8.00000,0.00000,0.00000
1018,8.50000,0.00000,0.00000
1019,9.00000,0.00000,0.00000
1020,9.50000,0.00000,0.00000
** ... 61 like lines cut
**
**
*ELEMENT, TYPE=B31, ELSET=COL1
1001, 1001, 1002
1002, 1002, 1003
1003, 1003, 1004
1004, 1004, 1005
1005, 1005, 1006
1006, 1006, 1007
1007, 1007, 1008
1008, 1008, 1009
1009, 1009, 1010
1010, 1010, 1011
1011, 1011, 1012
1012, 1012, 1013
1013, 1013, 1014
1014, 1014, 1015
1015, 1015, 1016
1016, 1016, 1017
1017, 1017, 1018
1018, 1018, 1019
1019, 1019, 1020
1020, 1020, 1021
** ... 60 like lines cut
**
**
*NSET, NSET=SUPPORT
1001, 1081
**
*NSET, NSET=ALL
1001, 1002, 1003, 1004, 1005, 1006, 1007, 1008, 1009, 1010, 1011, 1012, 1013, 1014, 1015, 1016
1017, 1018, 1019, 1020, 1021, 1022, 1023, 1024, 1025, 1026, 1027, 1028, 1029, 1030, 1031, 1032
1033, 1034, 1035, 1036, 1037, 1038, 1039, 1040, 1041, 1042, 1043, 1044, 1045, 1046, 1047, 1048
1049, 1050, 1051, 1052, 1053, 1054, 1055, 1056, 1057, 1058, 1059, 1060, 1061, 1062, 1063, 1064
1065, 1066, 1067, 1068, 1069, 1070, 1071, 1072, 1073, 1074, 1075, 1076, 1077, 1078, 1079, 1080
1081
**
*ELEMENT, TYPE=SPRING1, ELSET=SPRING_TO_GROUND
3000, 1030
*SPRING, ELSET=SPRING_TO_GROUND
2
1e7
*BEAM SECTION, ELSET=COL1, MATERIAL=STEEL, TEMPERATURE=GRADIENTS, SECTION=BOX
1.00000e-01, 1.00000e-01, 1.00000e-02, 1.00000e-02, 1.00000e-02, 1.00000e-02
0.00000, 1.00000, 0.00000
**
*END PART
**
*ASSEMBLY, NAME=ASSEMBLY_BEAM
**
*INSTANCE, NAME=BEAM, PART=BEAM
**
*END INSTANCE
**
*END ASSEMBLY
**
*BOUNDARY, OP=MOD
BEAM.SUPPORT,1,4,0
**
*BOUNDARY, OP=MOD
BEAM.ALL,3,3,0
**
*BOUNDARY, OP=MOD
BEAM.ALL,4,4,0
**
***********************************************************
** Modal
***********************************************************
**********
** 
**********
*STEP 
*FREQUENCY, NORMALIZATION=MASS
20
**
**
*OUTPUT, FIELD
*NODE OUTPUT 
U
COORD
**
*OUTPUT, FIELD
*ELEMENT OUTPUT 
SF
**
*END STEP
**
