1

   Abaqus 3DEXPERIENCE R2017x                                  Date 01-Sep-2021   Time 08:55:59
   For use by NTNU NORGES TEKNISK NATURVITENSKAPELIGE UNIVERSITET under license from Dassault Systemes or its subsidiary.



                         The Abaqus Software is a product of:

                           Dassault Systemes SIMULIA Corp.
                           1301 Atwood Avenue, Suite 101W
                              Johnston, RI 02919, USA
 


                   The Abaqus Software is available only under license
                   from Dassault Systemes or its subsidiary and may be
                   used or reproduced only in accordance with the terms
                   of such license.
 
                          On machine NTNU08422 
                          you are authorized to run
                          Abaqus/Foundation until 30-Sep-2021

                          Your site id is: 100000000001981 


 
                    For assistance or any other information you may
                    obtain contact information for your local office
                    from the world wide web at:

                      http://www.3ds.com/products/simulia/locations/

 
                * * * * * * * * * * * * * * * * * * * * * * * * * * * * * * 
                *                                                         * 
                *                   *****************                     * 
                *                   *  N O T I C E  *                     * 
                *                   *****************                     * 
                *                                                         * 
                *                                                         * 
                *               Abaqus 3DEXPERIENCE R2017x                * 
                *                                                         * 
                *          BUILD ID: 2016_09_27-23.54.59 126836           * 
                *                                                         * 
                *                                                         * 
                *  Please make sure you are using                         * 
                *  release 3DEXPERIENCE R2017x manuals                    * 
                *  plus the notes accompanying this release.              * 
                *                                                         * 
                *                                                         * 
                *                                                         * 
                *                                                         * 
                *                                                         * 
                *   This program may not be used for commercial purposes  * 
                *           without payment of a commercial fee.          * 
                *                                                         * 
                * * * * * * * * * * * * * * * * * * * * * * * * * * * * * * 


 



     PROCESSING PART, INSTANCE, AND ASSEMBLY INFORMATION
   *******************************************************


     END PROCESSING PART, INSTANCE, AND ASSEMBLY INFORMATION
   ***********************************************************




     OPTIONS BEING PROCESSED
   ***************************


  *Node
  *Element, type=B31
  *Element, type=SPRING1
  *Nset, nset=ASSEMBLY_BEAM_BEAM_ALL
  *Nset, nset=ASSEMBLY_BEAM_BEAM_COL1
  *Nset, nset=ASSEMBLY_BEAM_BEAM_SUPPORT
  *Elset, elset=ASSEMBLY_BEAM_BEAM_COL1
  *Elset, elset=ASSEMBLY_BEAM_BEAM_SPRING_TO_GROUND
  *material, name=STEEL
  *elastic
  *density
  *spring, elset=ASSEMBLY_BEAM_BEAM_SPRING_TO_GROUND
  *beamsection, elset=ASSEMBLY_BEAM_BEAM_COL1, temperature=GRADIENTS, material=STEEL, section=BOX
  *spring, elset=ASSEMBLY_BEAM_BEAM_SPRING_TO_GROUND
  *boundary, op=MOD
  *boundary, op=MOD
  *boundary, op=MOD
  *boundary, op=MOD
  *boundary, op=MOD
  *boundary, op=MOD
  *output, field
  *output, field
  *elementoutput
  *output, field
  *output, field
  *elementoutput
  *output, field
  *output, field
  *elementoutput
  *Step, name=Step-1
  *frequency, normalization=MASS
  *output, field
  *output, field
  *Step, name=Step-1
  *Step, name=Step-1
  *frequency, normalization=MASS
  *frequency, normalization=MASS
  *output, field
  *nodeoutput
  *output, field
  *elementoutput
  *endstep

 ***WARNING: OUTPUT REQUEST SF IS NOT AVAILABLE FOR ELEMENT TYPE SPRING1
  *boundary, op=MOD
  *boundary, op=MOD
  *boundary, op=MOD
  *Step, name=Step-1
  *frequency, normalization=MASS
  *frequency, normalization=MASS
  *endstep



                            P R O B L E M   S I Z E


          NUMBER OF ELEMENTS IS                                    81
          NUMBER OF NODES IS                                      241
          NUMBER OF NODES DEFINED BY THE USER                      81
          NUMBER OF INTERNAL NODES GENERATED BY THE PROGRAM       160
          TOTAL NUMBER OF VARIABLES IN THE MODEL                  486
          (DEGREES OF FREEDOM PLUS MAX NO. OF ANY LAGRANGE MULTIPLIER
           VARIABLES. INCLUDE *PRINT,SOLVE=YES TO GET THE ACTUAL NUMBER.)



                              END OF USER INPUT PROCESSING



     JOB TIME SUMMARY
       USER TIME (SEC)      =  0.10000    
       SYSTEM TIME (SEC)    =   0.0000    
       TOTAL CPU TIME (SEC) =  0.10000    
       WALLCLOCK TIME (SEC) =          0
1

   Abaqus 3DEXPERIENCE R2017x                                  Date 01-Sep-2021   Time 08:56:06
   For use by NTNU NORGES TEKNISK NATURVITENSKAPELIGE UNIVERSITET under license from Dassault Systemes or its subsidiary.

                                                                                               STEP    1  INCREMENT    1
                                                                                          TIME COMPLETED IN THIS STEP   0.00    


                        S T E P       1     C A L C U L A T I O N   O F   E I G E N V A L U E S

                                            F O R   N A T U R A L   F R E Q U E N C I E S



                                                                                          

     THE LANCZOS EIGENSOLVER IS USED FOR THIS ANALYSIS
     SYSTEM DATA WILL BE WRITTEN TO THE .SIM FILE

     Abaqus WILL COMPUTE UNCOUPLED
      STRUCTURAL AND ACOUSTIC MODES
     NUMBER OF EIGENVALUES                     20
     HIGHEST FREQUENCY OF INTEREST                  1.00000E+18
     MAXIMUM NUMBER OF STEPS WITHIN RUN               35
     BLOCK SIZE FOR LANCZOS PROCEDURE                  7
     THE EIGENVECTORS ARE SCALED SO THAT 
      THE GENERALIZED MASS IN EACH VECTOR IS UNITY

     THIS IS A LINEAR PERTURBATION STEP.
     ALL LOADS ARE DEFINED AS CHANGE IN LOAD TO THE REFERENCE STATE



                    TOTAL MASS OF MODEL

                       1130.400    


                    LOCATION OF THE CENTER OF MASS OF THE MODEL

                       20.00000           0.000000           0.000000    


                    MOMENTS OF INERTIA ABOUT THE ORIGIN
                           I(XX)               I(YY)               I(ZZ)

                       3.052080           602928.6           602928.6    


                    PRODUCTS OF INERTIA ABOUT THE ORIGIN
                           I(XY)               I(XZ)               I(YZ)

                       0.000000           0.000000           0.000000    


                    MOMENTS OF INERTIA ABOUT THE CENTER OF MASS
                           I(XX)               I(YY)               I(ZZ)

                       3.052080           150768.6           150768.6    


                    PRODUCTS OF INERTIA ABOUT THE CENTER OF MASS
                           I(XY)               I(XZ)               I(YZ)

                       0.000000           0.000000           0.000000    
  
                   M E M O R Y   E S T I M A T E
  
 PROCESS      FLOATING PT       MINIMUM MEMORY        MEMORY TO
              OPERATIONS           REQUIRED          MINIMIZE I/O
             PER ITERATION           (MB)               (MB)
  
     1         1.07E+005               16                 25
  
 NOTE:
      (1) SINCE ABAQUS DOES NOT PRE-ALLOCATE MEMORY AND ONLY ALLOCATES MEMORY AS NEEDED DURING THE ANALYSIS,
          THE MEMORY REQUIREMENT PRINTED HERE CAN ONLY BE VIEWED AS A GENERAL GUIDELINE BASED ON THE BEST
          KNOWLEDGE AVAILABLE AT THE BEGINNING OF A STEP BEFORE THE SOLUTION PROCESS HAS BEGUN.
      (2) THE ESTIMATE IS NORMALLY UPDATED AT THE BEGINNING OF EVERY STEP. IT IS THE MAXIMUM VALUE OF THE
          ESTIMATE FROM THE CURRENT STEP TO THE LAST STEP OF THE ANALYSIS, WITH UNSYMMETRIC SOLUTION TAKEN
          INTO ACCOUNT IF APPLICABLE. 
      (3) SINCE THE ESTIMATE IS BASED ON THE ACTIVE DEGREES OF FREEDOM IN THE FIRST ITERATION OF THE 
          CURRENT STEP, THE MEMORY ESTIMATE MIGHT BE SIGNIFICANTLY DIFFERENT THAN ACTUAL USAGE FOR 
          PROBLEMS WITH SUBSTANTIAL CHANGES IN ACTIVE DEGREES OF FREEDOM BETWEEN STEPS (OR EVEN WITHIN
          THE SAME STEP). EXAMPLES ARE: PROBLEMS WITH SIGNIFICANT CONTACT CHANGES, PROBLEMS WITH MODEL
          CHANGE, PROBLEMS WITH BOTH STATIC STEP AND STEADY STATE DYNAMIC PROCEDURES WHERE ACOUSTIC 
          ELEMENTS WILL ONLY BE ACTIVATED IN THE STEADY STATE DYNAMIC STEPS.
      (4) FOR MULTI-PROCESS EXECUTION, THE ESTIMATED VALUE OF FLOATING POINT OPERATIONS FOR EACH PROCESS
          IS BASED ON AN INITIAL SCHEDULING OF OPERATIONS AND MIGHT NOT REFLECT THE ACTUAL FLOATING 
          POINT OPERATIONS COMPLETED ON EACH PROCESS. OPERATIONS ARE DYNAMICALLY BALANCED DURING EXECUTION, 
          SO THE ACTUAL BALANCE OF OPERATIONS BETWEEN PROCESSES IS EXPECTED TO BE BETTER THAN THE ESTIMATE
          PRINTED HERE.
      (5) THE UPPER LIMIT OF MEMORY THAT CAN BE ALLOCATED BY ABAQUS WILL IN GENERAL DEPEND ON THE VALUE OF
          THE "MEMORY" PARAMETER AND THE AMOUNT OF PHYSICAL MEMORY AVAILABLE ON THE MACHINE. PLEASE SEE
          THE "ABAQUS ANALYSIS USER'S MANUAL" FOR MORE DETAILS. THE ACTUAL USAGE OF MEMORY AND OF DISK
          SPACE FOR SCRATCH DATA WILL DEPEND ON THIS UPPER LIMIT AS WELL AS THE MEMORY REQUIRED TO MINIMIZE
          I/O. IF THE MEMORY UPPER LIMIT IS GREATER THAN THE MEMORY REQUIRED TO MINIMIZE I/O, THEN THE ACTUAL
          MEMORY USAGE WILL BE CLOSE TO THE ESTIMATED "MEMORY TO MINIMIZE I/O" VALUE, AND THE SCRATCH DISK
          USAGE WILL BE CLOSE-TO-ZERO; OTHERWISE, THE ACTUAL MEMORY USED WILL BE CLOSE TO THE PREVIOUSLY
          MENTIONED MEMORY LIMIT, AND THE SCRATCH DISK USAGE WILL BE ROUGHLY PROPORTIONAL TO THE DIFFERENCE
          BETWEEN THE ESTIMATED "MEMORY TO MINIMIZE I/O" AND THE MEMORY UPPER LIMIT. HOWEVER ACCURATE
          ESTIMATE OF THE SCRATCH DISK SPACE IS NOT POSSIBLE.
      (6) USING "*RESTART, WRITE" CAN GENERATE A LARGE AMOUNT OF DATA WRITTEN IN THE WORK DIRECTORY.


                              E I G E N V A L U E    O U T P U T     

 MODE NO      EIGENVALUE              FREQUENCY         GENERALIZED MASS   COMPOSITE MODAL DAMPING            
                             (RAD/TIME)   (CYCLES/TIME)


       1       13.133         3.6240        0.57678         1.0000         0.0000    
       2       103.82         10.189         1.6217         1.0000         0.0000    
       3       205.63         14.340         2.2823         1.0000         0.0000    
       4       764.62         27.652         4.4009         1.0000         0.0000    
       5       1563.5         39.541         6.2931         1.0000         0.0000    
       6       2500.9         50.009         7.9591         1.0000         0.0000    
       7       5437.4         73.738         11.736         1.0000         0.0000    
       8       7562.0         86.960         13.840         1.0000         0.0000    
       9       11583.         107.63         17.129         1.0000         0.0000    
      10       19820.         140.78         22.406         1.0000         0.0000    
      11       23060.         151.85         24.168         1.0000         0.0000    
      12       34835.         186.64         29.705         1.0000         0.0000    
      13       50416.         224.53         35.736         1.0000         0.0000    
      14       55593.         235.78         37.526         1.0000         0.0000    
      15       81798.         286.00         45.519         1.0000         0.0000    
      16      1.00752E+05     317.41         50.518         1.0000         0.0000    
      17      1.17410E+05     342.65         54.535         1.0000         0.0000    
      18      1.62347E+05     402.92         64.127         1.0000         0.0000    
      19      1.64996E+05     406.20         64.648         1.0000         0.0000    
      20      1.77755E+05     421.61         67.101         1.0000         0.0000    


          P A R T I C I P A T I O N   F A C T O R S

 MODE NO    X-COMPONENT    Y-COMPONENT    Z-COMPONENT    X-ROTATION     Y-ROTATION     Z-ROTATION 

       1      4.66705E-16     20.477         0.0000         0.0000        1.83430E-20     630.94    
       2      2.90076E-15     16.392         0.0000         0.0000        4.17575E-20     241.61    
       3      5.85179E-15    -11.416         0.0000         0.0000       -1.48379E-19     5.2536    
       4     -2.42004E-15    -9.9285         0.0000         0.0000       -4.26979E-19    -214.11    
       5      1.69691E-14    -3.0256         0.0000         0.0000        3.88216E-18    -138.36    
       6     -1.36492E-14    -1.6314         0.0000         0.0000       -6.38191E-18     22.737    
       7     -2.79484E-14    -2.9726         0.0000         0.0000       -4.78930E-19    -116.29    
       8     -2.41592E-14    -8.2110         0.0000         0.0000       -1.41437E-19    -107.80    
       9     -1.15078E-13     2.3925         0.0000         0.0000       -4.22101E-19    -23.128    
      10      3.29260E-14    -2.9523         0.0000         0.0000       -3.82879E-18    -60.309    
      11     -6.62181E-15    -3.5593         0.0000         0.0000       -2.67992E-18    -100.64    
      12      1.28053E-12   -0.74355         0.0000         0.0000        3.53705E-17     19.886    
      13     -1.05360E-13     2.9964         0.0000         0.0000       -3.16756E-18     5.7823    
      14      6.32639E-13     5.2271         0.0000         0.0000        2.00259E-17     95.508    
      15     -2.44870E-12    -1.1418         0.0000         0.0000       -3.47483E-17     14.704    
      16      9.60412E-12    -1.3641         0.0000         0.0000        2.61063E-17    -38.470    
      17      8.44652E-11    -3.1470         0.0000         0.0000        3.07082E-16    -71.896    
      18      3.83036E-10     1.6022         0.0000         0.0000        1.63512E-15    -3.7268    
      19       30.266       -1.17149E-10     0.0000         0.0000        4.88248E-15    1.52268E-08
      20      7.60014E-09     3.3806         0.0000         0.0000        2.42585E-14     38.895    


                    E F F E C T I V E   M A S S

 MODE NO    X-COMPONENT    Y-COMPONENT    Z-COMPONENT    X-ROTATION     Y-ROTATION     Z-ROTATION 

       1      2.17814E-31     419.32         0.0000         0.0000        3.36467E-40    3.98088E+05
       2      8.41443E-30     268.68         0.0000         0.0000        1.74369E-39     58377.    
       3      3.42434E-29     130.32         0.0000         0.0000        2.20163E-38     27.600    
       4      5.85660E-30     98.575         0.0000         0.0000        1.82311E-37     45842.    
       5      2.87949E-28     9.1545         0.0000         0.0000        1.50712E-35     19144.    
       6      1.86300E-28     2.6616         0.0000         0.0000        4.07288E-35     516.98    
       7      7.81112E-28     8.8364         0.0000         0.0000        2.29374E-37     13522.    
       8      5.83665E-28     67.421         0.0000         0.0000        2.00044E-38     11622.    
       9      1.32429E-26     5.7241         0.0000         0.0000        1.78169E-37     534.90    
      10      1.08412E-27     8.7160         0.0000         0.0000        1.46596E-35     3637.2    
      11      4.38483E-29     12.668         0.0000         0.0000        7.18195E-36     10128.    
      12      1.63975E-24    0.55287         0.0000         0.0000        1.25107E-33     395.44    
      13      1.11007E-26     8.9782         0.0000         0.0000        1.00335E-35     33.435    
      14      4.00232E-25     27.323         0.0000         0.0000        4.01035E-34     9121.9    
      15      5.99613E-24     1.3037         0.0000         0.0000        1.20744E-33     216.21    
      16      9.22392E-23     1.8608         0.0000         0.0000        6.81541E-34     1479.9    
      17      7.13437E-21     9.9034         0.0000         0.0000        9.42995E-32     5169.1    
      18      1.46717E-19     2.5671         0.0000         0.0000        2.67360E-30     13.889    
      19       916.03        1.37239E-20     0.0000         0.0000        2.38386E-29    2.31856E-16
      20      5.77621E-17     11.429         0.0000         0.0000        5.88474E-28     1512.8    

 TOTAL         916.03         1096.0         0.0000         0.0000        6.15084E-28    5.79382E+05


          THE ANALYSIS HAS BEEN COMPLETED



                              ANALYSIS COMPLETE
                              WITH      1 WARNING MESSAGES ON THE DAT FILE



     JOB TIME SUMMARY
       USER TIME (SEC)      =  0.50000    
       SYSTEM TIME (SEC)    =  0.10000    
       TOTAL CPU TIME (SEC) =  0.60000    
       WALLCLOCK TIME (SEC) =          1
