1

   Abaqus 3DEXPERIENCE R2017x                                  Date 01-Sep-2021   Time 08:56:06
   For use by NTNU NORGES TEKNISK NATURVITENSKAPELIGE UNIVERSITET under license from Dassault Systemes or its subsidiary.

                                                                                 
                                                                                 
 STEP    1     INCREMENT     1     STEP TIME    0.00    


                        S T E P       1     C A L C U L A T I O N   O F   E I G E N V A L U E S

                                            F O R   N A T U R A L   F R E Q U E N C I E S



                                                                                          

     THE LANCZOS EIGENSOLVER IS USED FOR THIS ANALYSIS
     SYSTEM DATA WILL BE WRITTEN TO THE .SIM FILE

     Abaqus WILL COMPUTE UNCOUPLED
      STRUCTURAL AND ACOUSTIC MODES
     NUMBER OF EIGENVALUES                     20
     HIGHEST FREQUENCY OF INTEREST                  1.00000E+18
     MAXIMUM NUMBER OF STEPS WITHIN RUN               35
     BLOCK SIZE FOR LANCZOS PROCEDURE                  7
     THE EIGENVECTORS ARE SCALED SO THAT 
      THE GENERALIZED MASS IN EACH VECTOR IS UNITY

     THIS IS A LINEAR PERTURBATION STEP.
     ALL LOADS ARE DEFINED AS CHANGE IN LOAD TO THE REFERENCE STATE

     EXTRAPOLATION WILL NOT BE USED

     CHARACTERISTIC ELEMENT LENGTH     0.500    

     DETAILS REGARDING ACTUAL SOLUTION WAVEFRONT REQUESTED

     DETAILED OUTPUT OF DIAGNOSTICS TO DATABASE REQUESTED

     PRINT OF INCREMENT NUMBER, TIME, ETC., TO THE MESSAGE FILE EVERY     1  INCREMENTS

     COLLECTING MODEL CONSTRAINT INFORMATION FOR OVERCONSTRAINT CHECKS

     COLLECTING STEP CONSTRAINT INFORMATION FOR OVERCONSTRAINT CHECKS

     CHECK POINT   START OF SOLVER    
  
 COMPUTER PRECISION USED BY ABAQUS      2.22045e-016
 CONVERGENCE CRITERION FOR LANCZOS RUN  1.81899e-012
  
 NUMBER OF EQUATIONS                                                         486
 NUMBER OF UNRESTRAINED DEGREES OF FREEDOM                                   320
 HEURISTIC SCALE FOR THE FIRST NONZERO EIGENVALUES (PROBLEM SCALE)  1.82999e+002
 INITIAL SHIFT VALUE                                                0.00000e+000
  
 NUMBER OF CPUS USED BY DIRECT SOLVER     1
  
 NUMBER OF NEGATIVE EIGENVALUES     0
 NUMBER OF POSITIVE EIGENVALUES   486
 NUMBER OF NEGATIVE EIGENVALUES NOT ASSOCIATED WITH LAGRANGE MULTIPLIERS     0
 NUMBER OF LAGRANGE MULTIPLIERS     0
  
 COMPUTATIONAL INTERVAL FOR THE INITIAL LANCZOS RUN
 
 EIGENVALUES NEEDED TO THE RIGHT OF SHIFT VALUE   20
 EIGENVALUES NEEDED TO THE LEFT OF SHIFT VALUE     0
 RIGHT BOUNDARY OF THE COMPUTATIONAL INTERVAL  3.95574e+037
 LEFT BOUNDARY OF THE COMPUTATIONAL INTERVAL  -3.95574e+037
  
 LANCZOS RUN TERMINATED. NUMBER OF STEPS:    9
 ALL THE EIGENVALUES REQUESTED ON THIS LANCZOS RUN ARE FOUND
  
 NUMBER OF ACCEPTED EIGENVALUES   21
  
 ACCEPTED EIGENVALUES
  1.31333e+001 1.03819e+002 2.05633e+002 7.64617e+002 1.56348e+003 2.50085e+003
  5.43735e+003 7.56203e+003 1.15832e+004 1.98198e+004 2.30598e+004 3.48350e+004
  5.04156e+004 5.55930e+004 8.17978e+004 1.00752e+005 1.17410e+005 1.62347e+005
  1.64996e+005 1.77755e+005 2.20423e+005
  
 FACTORIZATION WITH NEW SHIFT VALUE IS REQUIRED
  
 TRUST INTERVALS AFTER LANCZOS RUN AND COMPRESSION
  
 NUMBER OF TRUST INTERVALS    1
  
 -------------------------------------------------------------------------------------
 | KEY | INSIDE |      INERTIAS     |  SENTINELS  |   OUTSIDE   |  NEED TO FIND      |
 |      ENDS OF INTERVAL     |     ENDS OF SENTINEL      |   COMPUTATIONAL INTERVAL  |
 -------------------------------------------------------------------------------------
 |  +  |      0 |        0        0 |     0     0 |     0     0 |      0    20       |
 |-3.95574e+037 0.00000e+000 |-3.95574e+037 0.00000e+000 |-3.95574e+037 3.95574e+037 |
 -------------------------------------------------------------------------------------
  
 DATA FOR CHOOSING SHIFT
  
 NUMBER OF EIGENVALUES NEEDED IN THE PRIMARY TRUST INTERVAL   20
  
 NUMBER OF MODES FORMING SENTINEL TO THE RIGHT   21
 SHIFT RIGHT        1.99089e+005
  
 NUMBER OF MODES FORMING SENTINEL TO THE LEFT     0
 SHIFT LEFT         0.00000e+000
  
 SHIFTING TO THE RIGHT DIRECTION
 NEW SHIFT          1.99089e+005
  
 NUMBER OF NEGATIVE EIGENVALUES    20
 NUMBER OF POSITIVE EIGENVALUES   466
 NUMBER OF NEGATIVE EIGENVALUES NOT ASSOCIATED WITH LAGRANGE MULTIPLIERS    20
 NUMBER OF LAGRANGE MULTIPLIERS     0
  
 THE REQUIRED NUMBER OF EIGENVALUES IS FOUND
  
 FINAL TRUST INTERVAL
  
 -------------------------------------------------------------------------------------
 | KEY | INSIDE |      INERTIAS     |  SENTINELS  |   OUTSIDE   |  NEED TO FIND      |
 |      ENDS OF INTERVAL     |     ENDS OF SENTINEL      |   COMPUTATIONAL INTERVAL  |
 -------------------------------------------------------------------------------------
 |  +  |     20 |        0       20 |     0     0 |     0     0 |      0     0       |
 |-3.95574e+037 1.99089e+005 |-3.95574e+037 1.99089e+005 |-3.95574e+037 1.99089e+005 |
 -------------------------------------------------------------------------------------
  
 FIRST EIGENVALUE REQUESTED BY THE USER     1
  
 EIGENVALUES REQUESTED BY THE USER
  1.31333e+001 1.03819e+002 2.05633e+002 7.64617e+002 1.56348e+003 2.50085e+003
  5.43735e+003 7.56203e+003 1.15832e+004 1.98198e+004 2.30598e+004 3.48350e+004
  5.04156e+004 5.55930e+004 8.17978e+004 1.00752e+005 1.17410e+005 1.62347e+005
  1.64996e+005 1.77755e+005
  
 EIGENVALUE EXTRACTION USING THE LANCZOS EIGENSOLVER IS COMPLETE
 NUMBER OF LANCZOS RUNS       :   1
 NUMBER OF LANCZOS STEPS      :   9
 NUMBER OF FACTORIZATIONS     :   2
 NUMBER OF BACK SUBSTITUTIONS :  10

     CHECK POINT  END OF SOLVER       

       ELAPSED USER TIME (SEC)      =  0.10000    
       ELAPSED SYSTEM TIME (SEC)    =  0.10000    
       ELAPSED TOTAL CPU TIME (SEC) =  0.20000    
       ELAPSED WALLCLOCK TIME (SEC) =          0


          THE ANALYSIS HAS BEEN COMPLETED



     ANALYSIS SUMMARY:
     TOTAL OF          1  INCREMENTS
                       0  CUTBACKS IN AUTOMATIC INCREMENTATION
                       0  ITERATIONS INCLUDING CONTACT ITERATIONS IF PRESENT
                      12  PASSES THROUGH THE EQUATION SOLVER OF WHICH 
                       2  INVOLVE MATRIX DECOMPOSITION, INCLUDING
                       0  DECOMPOSITION(S) OF THE MASS MATRIX
                       1  REORDERING OF EQUATIONS TO MINIMIZE WAVEFRONT
                       0  ADDITIONAL RESIDUAL EVALUATIONS FOR LINE SEARCHES
                       0  ADDITIONAL OPERATOR EVALUATIONS FOR LINE SEARCHES
                       1  WARNING MESSAGES DURING USER INPUT PROCESSING
                       0  WARNING MESSAGES DURING ANALYSIS
                       0  ANALYSIS WARNINGS ARE NUMERICAL PROBLEM MESSAGES
                       0  ANALYSIS WARNINGS ARE NEGATIVE EIGENVALUE MESSAGES
                       0  ERROR MESSAGES



     JOB TIME SUMMARY
       USER TIME (SEC)      =  0.50000    
       SYSTEM TIME (SEC)    =  0.10000    
       TOTAL CPU TIME (SEC) =  0.60000    
       WALLCLOCK TIME (SEC) =          1
